10
Atoms. Timestep: 0
N 146.796 150.335 141.285
C 146.286 151.541 141.559
N 146.791 151.97 142.702
C 147.602 150.975 143.239
C 147.555 149.941 142.361
C 146.776 149.603 139.963
C 146.661 153.32 143.278
C 146.373 154.431 142.246
C 147.6 154.914 141.357
C 147.09 156.042 140.417
10
Atoms. Timestep: 1
N 173.339 140.685 176.374
C 172.934 141.499 175.442
N 171.7 141.3 175.121
C 171.3 140.095 175.699
C 172.329 139.694 176.456
C 174.656 140.652 177.027
C 170.964 142.071 174.088
C 169.514 142.531 174.477
C 169.345 143.129 175.862
C 170.156 144.368 176.263
10
Atoms. Timestep: 2
N 138.971 175.326 181.4
C 137.64597 175.063 181.316
N 137.21396 175.259 180.107
C 138.22896 175.84 179.377
C 139.345 175.919 180.194
C 139.84 175.136 182.585
C 135.86696 174.939 179.634
C 134.78696 174.839 180.71
C 133.42096 174.397 180.129
C 133.30696 172.896 179.924
10
Atoms. Timestep: 3
N 145.466 148.688 155.595
C 144.376 148.246 156.238
N 143.324 148.802 155.696
C 143.843 149.537 154.593
C 145.173 149.469 154.526
C 146.746 148.073 155.676
C 141.892 148.475 155.993
C 140.778 149.157 155.25
C 139.402 148.731 155.836
C 138.421 148.449 154.671
10
Atoms. Timestep: 4
N 169.753 144.705 150.977
C 168.459 144.853 150.859
N 167.879 143.642 150.894
C 168.94 142.693 150.876
C 170.117 143.412 151.044
C 170.68 145.829 151.012
C 166.529 143.276 150.515
C 166.485 143.158 148.949
C 165.003 143.144 148.513
C 164.817 142.839 146.94
10
Atoms. Timestep: 5
N 169.323 178.591 162.481
C 170.537 178.728 162.95
N 170.503 178.735 164.289
C 169.195 178.51 164.687
C 168.44 178.5 163.563
C 169.002 178.705 161.04
C 171.651 178.985 165.175
C 171.683 178.204 166.507
C 171.814 176.734 166.346
C 172.115 175.989 167.644
10
Atoms. Timestep: 6
N 153.157 168.537 171.165
C 153.504 167.617 172.039
N 154.814 167.502 172.05
C 155.285 168.285 171.028
C 154.27 169.09 170.591
C 151.791 169.02 171.041
C 155.628 166.63 172.937
C 157.046 167.116 173.138
C 158.158 166.667 172.162
C 159.576 166.994 172.775
10
Atoms. Timestep: 7
N 145.547 177.127 182.576
C 145.427 176.725 183.819
N 144.185 176.838 184.29105
C 143.512 177.497 183.265
C 144.329 177.635 182.166
C 146.779 177.208 181.834
C 143.623 176.6 185.65105
C 143.738 177.76 186.67303
C 142.765 178.887 186.35104
C 142.73 179.982 187.36703
10
Atoms. Timestep: 8
N 140.159 169.855 147.727
C 140.2 171.151 148.104
N 141.108 171.391 148.998
C 141.606 170.185 149.457
C 141.077 169.276 148.591
C 139.484 169.256 146.529
C 141.603 172.66 149.513
C 141.274 172.978 151.043
C 139.747 172.974 151.393
C 139.185 171.637 151.957
10
Atoms. Timestep: 9
N 168.333 168.736 154.244
C 167.902 168.168 155.364
N 168.588 168.596 156.418
C 169.643 169.317 155.914
C 169.425 169.477 154.608
C 167.851 168.426 152.859
C 168.368 168.278 157.828
C 168.882 166.934 158.379
C 170.416 166.776 158.098
C 170.925 165.339 158.323
10
Atoms. Timestep: 10
N 156.897 180.077 176.853
C 157.228 180.92 177.785
N 158.022 181.845 177.333
C 158.18 181.538 175.963
C 157.51 180.403 175.662
C 155.998 178.91 177.048
C 158.592 182.982 178.073
C 158.936 184.218 177.177
C 157.624 185.01004 176.691
C 158.017 186.04803 175.677
10
Atoms. Timestep: 11
N 159.836 160.974 145.225
C 159.473 159.797 145.719
N 160.612 159.121 145.862
C 161.629 159.752 145.25
C 161.102 160.876 144.809
C 158.931 162.123 145.047
C 160.743 157.872 146.641
C 159.921 157.883 148.047
C 160.214 159.132 148.932
C 160.256 158.984 150.439
10
Atoms. Timestep: 12
N 151.288 160.694 153.104
C 152.084 161.733 153.351
N 153.21 161.419 153.933
C 153.102 160.102 154.302
C 151.953 159.622 153.731
C 149.973 160.78 152.425
C 154.318 162.345 154.335
C 154.526 163.694 153.482
C 154.804 163.445 151.98
C 154.842 164.773 151.17
10
Atoms. Timestep: 13
N 179.453 184.051 157.518
C 180.249 183.046 157.597
N 180.228 182.365 156.445
C 179.195 182.889 155.66
C 178.925 184.074 156.212
C 178.989 184.96404 158.633
C 180.958 181.14 156.025
C 181.452 181.15 154.658
C 182.005 179.865 154.081
C 180.911 178.814 153.841
10
Atoms. Timestep: 14
N 144.039 164.791 149.108
C 145.101 164.861 149.826
N 144.872 165.633 150.842
C 143.697 166.27 150.638
C 143.066 165.676 149.63
C 143.837 163.966 147.87
C 145.831 165.892 151.957
C 146.75 164.844 152.498
C 146.03 163.539 153.07
C 147.026 162.386 153.218
10
Atoms. Timestep: 15
N 181.013 171.861 145.139
C 181.099 173.095 145.626
N 180.616 173.93 144.719
C 180.663 173.269 143.484
C 181.037 171.992 143.735
C 181.101 170.604 145.893
C 180.365 175.361 144.846
C 180.985 176.341 143.834
C 181.226 177.759 144.435
C 182.2 177.857 145.596
10
Atoms. Timestep: 16
N 170.818 149.631 161.89
C 170.433 149.833 160.68
N 170.873 148.865 159.864
C 171.677 148.009 160.733
C 171.606 148.516 162.023
C 170.791 150.597 163.073
C 170.908 148.977 158.387
C 171.662 147.965 157.517
C 173.183 148.087 157.666
C 173.993 147.255 156.706
10
Atoms. Timestep: 17
N 148.344 180.143 149.555
C 149.309 179.605 148.791
N 150.253 180.506 148.519
C 150.046 181.617 149.288
C 148.789 181.441 149.83
C 147.148 179.469 150.129
C 151.36 180.371 147.536
C 151.081 181.093 146.243
C 150.58 182.564 146.337
C 150.694 183.331 145.02
10
Atoms. Timestep: 18
N 179.807 166.679 145.66
C 179.487 166.283 144.47
N 180.548 166.249 143.617
C 181.612 166.628 144.407
C 181.141 166.954 145.629
C 178.893 167.031 146.831
C 180.633 165.825 142.235
C 181.539 164.536 141.934
C 181.208 163.199 142.653
C 181.817 163.268 144.059
10
Atoms. Timestep: 19
N 152.109 159.294 174.959
C 151.028 159.238 175.714
N 149.905 159.188 174.981
C 150.36 159.08 173.67
C 151.705 159.157 173.654
C 153.477 159.49 175.418
C 148.461 159.186 175.379
C 147.486 158.371 174.416
C 147.982 156.932 174.204
C 147.061 156.01 173.309
